[JUNCTIONS]
;Id	Elevation
4tQyVjy4CVL33HXQyTtRg	56.4
H90FOUFsjKy0LrTMBrzt5	68.7
vLfEJv8pqDKcgWS2GkUmI	61.8

[RESERVOIRS]
;Id	Head	Pattern
ITMN7DinWlnXQJC2SX5PU	82.7

[PIPES]
;Id	Start	End	Length	Diameter	Roughness	MinorLoss	Status
IJGhUPvOjD27Z3cRpkter	H90FOUFsjKy0LrTMBrzt5	4tQyVjy4CVL33HXQyTtRg	135.26	300	130	0	Open
iUIhYX2iDiXCP55I9HixM	ITMN7DinWlnXQJC2SX5PU	vLfEJv8pqDKcgWS2GkUmI	196.73	300	130	0	Open

[DEMANDS]
;Id	Demand	Pattern	Category
4tQyVjy4CVL33HXQyTtRg	0
H90FOUFsjKy0LrTMBrzt5	0
vLfEJv8pqDKcgWS2GkUmI	0

[TIMES]
Duration	0

[REPORT]
Status	FULL

[OPTIONS]
Units	LPS
Headloss	H-W

[COORDINATES]
;Node	X-coord	Y-coord
4tQyVjy4CVL33HXQyTtRg	-4.3861492	55.9151006
H90FOUFsjKy0LrTMBrzt5	-4.3847988	55.9160529
vLfEJv8pqDKcgWS2GkUmI	-4.3829174	55.915024
ITMN7DinWlnXQJC2SX5PU	-4.3830084	55.9161634

[VERTICES]
;link	X-coord	Y-coord
iUIhYX2iDiXCP55I9HixM	-4.3837519	55.9156618
iUIhYX2iDiXCP55I9HixM	-4.3825532	55.9153301

[END]