[TITLE]
All Elements Small Network
[JUNCTIONS]
1	6
2	6
3	15.2
15	15.2
9_UP	4
9_DOWN	4
12_UP	15.2
12_DOWN	15.2
[RESERVOIRS]
10	80
[TANKS]
11	10	2	0	4	20	0		
[PIPES]
4	10	15	200	200	148	0	OPEN
5	9_DOWN	2	100	100	148	0	OPEN
6	15	9_UP	50	100	148	0	OPEN
7	2	1	100	80	148	0	OPEN
8	10	12_UP	100	100	148	0	OPEN
13	12_DOWN	11	607.2	80	148	0	OPEN
14	11	3	477.35	80	148	0	OPEN
[VALVES]
12	12_UP	12_DOWN	200	TCV	0.01	0
[PUMPS]
9	9_UP	9_DOWN	POWER 0.4	SPEED 1
[STATUS]
12	OPEN
[OPTIONS]
Units	LPS
Headloss	H-W
Unbalanced	Continue 10
Accuracy	0.0001
[TIMES]
Duration	86400 SEC
Start ClockTime	21600 SEC
Pattern Start	0 SEC
Pattern TimeStep	3600 SEC
Report Start	0 SEC
Report TimeStep	3600 SEC
Hydraulic TimeStep	3600 SEC
[PATTERNS]
1	0.645	0.869	1.093	1.317	1.263	1.208
1	1.054	1.093	1.131	1.077	0.923	0.923
1	0.923	0.892	0.761	0.629	0.498	0.467
1	0.421	0.344	0.367	0.321	0.374	0.421
[DEMANDS]
1	1	1
2	1	1
3	1	1
15	0	1
[COORDINATES]
1	-0.47797779	39.36906038
2	-0.4892666	39.37166954
3	-0.50223914	39.36409428
15	-0.491875	39.36694853
9_UP	-0.49	39.36694853
9_DOWN	-0.49	39.36694853
12_UP	-0.51414114	39.3671807
12_DOWN	-0.51414114	39.3671807
10	-0.50892647	39.37036765
11	-0.50766808	39.36499539
[VERTICES]
4	-0.50334559	39.36838235
4	-0.49775735	39.36742647
4	-0.49511029	39.36702206
4	-0.49349265	39.36694853
[CONTROLS]
