[TITLE]
[JUNCTIONS]
J1	0	0
J2	0	0
[RESERVOIRS]
R1	10
[TANKS]
T1	10	3	2	5	200	20	CURVE_ID
[PIPES]
P1	J1	J2	1	200	1	0.1	OPEN
P2	J2	T1	1	200	1	0.1	OPEN
[VALVES]
[PUMPS]
[COORDINATES]
J1	0	0
J2	1	1
T1	2	2
R1	0	0
[STATUS]
[TIMES]
[OPTIONS]
[PATTERNS]
[CURVES]
CURVE_ID	2	5
CURVE_ID	5	5
[DEMANDS]
[VERTICES]
